14
Lattice="13.600000000000001 0.0 0.0 0.0 11.200000000000001 0.0 0.0 0.0 12.0" Properties=species:S:1:pos:R:3:forces:R:3:magmoms:R:1 Energy:=T -38234.0307935=T eV=T PBE+vdW=T (tier=T 2=T basis)=T energy=-80.52246301351364 dipole="-1.7550047463296434 -0.3526155619193792 -1.955471095440231" magmom=0.0 free_energy=-80.52246301351364 pbc="F F F"
N        7.19842599       5.40864394       4.79214577       0.00978474      -0.03013722       0.00539826       0.00000000
C        7.03817289       5.96540864       6.16747734      -0.01884251       0.00026305       0.02599158       0.00000000
C        8.45354841       6.06900290       6.82069446      -0.01797025      -0.01928638       0.02284651       0.00000000
O        9.36614228       5.37510435       6.28495595      -0.00954341      -0.01498805       0.00978352       0.00000000
H        7.36599851       6.14660165       4.09871743       0.00705691      -0.02091266       0.01829323       0.00000000
H        8.03197540       4.79420386       4.80631544       0.01080556      -0.01702304      -0.01162459       0.00000000
H        6.59756940       6.96375695       6.07982655      -0.01005241       0.03379872      -0.01218754       0.00000000
C        6.12066110       5.06089260       6.99411439       0.00601247      -0.02821142       0.02080882       0.00000000
S        4.50082425       4.70471518       6.21505520       0.04083572      -0.00943400      -0.00849824       0.00000000
H        5.96299818       5.50118063       7.98415190       0.00997091       0.03688319      -0.01918117       0.00000000
H        6.57480375       4.07018089       7.12861010       0.01981521      -0.03965210       0.00640345       0.00000000
H        4.03377391       5.97660648       6.21199040      -0.00342634       0.00621656       0.00565414       0.00000000
O        8.54306477       6.81451522       7.83093613      -0.03449107      -0.00187281      -0.00829462       0.00000000
H        6.35413562       4.89007620       4.50069435      -0.00297321      -0.02021517       0.00074367       0.00000000
