27
Lattice="16.8 0.0 0.0 0.0 14.4 0.0 0.0 0.0 13.600000000000001" Properties=species:S:1:pos:R:3:forces:R:3:magmoms:R:1 Energy:=T -37222.8356107=T eV=T PBE+vdW=T (tier=T 2=T basis)=T energy=-175.78677111488918 dipole="-1.9434920985973152 -1.9604118896374467 -2.009899462957838" magmom=0.0 free_energy=-175.78677111488918 pbc="F F F"
N       10.45342520       6.59933937       6.59736191       0.01089415      -0.00923186       0.01585047       0.00000000
C       10.17433659       7.65777978       7.61544087      -0.02884537      -0.00858721       0.00419263       0.00000000
C       11.48034679       7.89556103       8.41976680      -0.00325079       0.01362838       0.01655411       0.00000000
O       11.55082154       8.97399385       9.06620331      -0.03491016       0.02732989       0.01729722       0.00000000
H       10.72450850       6.99708578       5.69209909      -0.00608291      -0.01242825      -0.00485756       0.00000000
H        9.64163330       5.98099450       6.45284177      -0.01923941      -0.01773247      -0.00538098       0.00000000
H        9.89753153       8.57232066       7.08081326      -0.01608022      -0.00823656      -0.00843498       0.00000000
C        9.01701163       7.20072965       8.53708452      -0.03598515      -0.02445331      -0.00381921       0.00000000
C        7.84689825       6.66596832       7.76664331       0.01978708       0.01674966      -0.02411834       0.00000000
C        7.44874068       5.34097281       7.69473658      -0.00334483      -0.00896568       0.02173464       0.00000000
C        6.99020611       7.38908485       6.86042821      -0.02336054       0.00560678      -0.00733446       0.00000000
N        6.40028041       5.20674412       6.81148147       0.02100840      -0.00570377      -0.02320481       0.00000000
C        6.09336864       6.43945521       6.28095203       0.02840952      -0.02997660       0.01328851       0.00000000
C        6.89210840       8.73884476       6.47296878       0.00639845       0.00993378       0.01293931       0.00000000
C        5.12629807       6.80163916       5.33594003       0.00895625       0.00232515      -0.01048475       0.00000000
C        5.93553128       9.10122377       5.52862363      -0.01294372      -0.00189653      -0.01625104       0.00000000
C        5.06576556       8.14234805       4.96287279      -0.01345747       0.01363186       0.01764724       0.00000000
H        8.73400584       8.06937712       9.14939492       0.00820476       0.01120303      -0.00402644       0.00000000
H        9.39249256       6.42587977       9.22238314      -0.01873540      -0.01864709       0.01495621       0.00000000
H        7.83703066       4.47812738       8.23118161       0.00694138       0.01027730      -0.02626676       0.00000000
H        5.91984588       4.33726220       6.60264102       0.01090868       0.01277794       0.00438766       0.00000000
H        7.55277846       9.49195099       6.90618270       0.01857811       0.01683327      -0.00680807       0.00000000
H        4.45077366       6.06011599       4.90635321       0.00682784      -0.00603501      -0.01292539       0.00000000
H        5.85441083      10.14403008       5.21782832      -0.00384024       0.00083266      -0.01422925       0.00000000
H        4.33018293       8.45990081       4.22181253      -0.01832035       0.00256067       0.00501604       0.00000000
O       12.34521388       6.96963543       8.37047570      -0.00448391       0.01107811       0.02587760       0.00000000
H       11.26207155       6.05956568       6.96557120       0.00045383       0.00324945      -0.01645491       0.00000000
