14
Energy: -19690.6204063 eV PBE+vdW (tier 2 basis)
N    -0.583359  0.130742  0.213785
C    -0.140412  -0.069507  1.599117
C    1.401086  -0.241835  1.619315
O    1.982909  0.120244  0.465688
H    -0.856996  -0.774590  -0.183723
H    -1.382336  0.759126  0.154430
H    -0.324936  0.864054  2.157090
C    -0.827597  -1.210754  2.362040
S    -0.815130  -2.808722  1.471459
H    -1.891560  -0.981993  2.506570
H    -0.363273  -1.336783  3.346153
H    0.509547  -3.049389  1.616828
O    2.012505  -0.638557  2.587224
H    1.204440  0.351628  -0.119946
